Info: SIMULATION PARAMETERS:
Info: TIMESTEP               1
Info: NUMBER OF STEPS        0
Info: STEPS PER CYCLE        12
Info: PERIODIC CELL BASIS 1  220 0 0
Info: PERIODIC CELL BASIS 2  0 220 0
Info: PERIODIC CELL BASIS 3  0 0 250
Info: PERIODIC CELL CENTER   0 0 0
Info: WRAPPING WATERS AROUND PERIODIC BOUNDARIES ON OUTPUT.
Info: WRAPPING ALL CLUSTERS AROUND PERIODIC BOUNDARIES ON OUTPUT.
Info: FIRST LDB TIMESTEP     60
Info: LAST LDB TIMESTEP     -1
Info: HOM BACKGROUND SCALING 1
Info: MIN ATOMS PER PATCH    40
Info: INITIAL TEMPERATURE    295
Info: CENTER OF MASS MOVING INITIALLY? YES
Info: DIELECTRIC             1
Info: EXCLUDE                SCALED ONE-FOUR
Info: 1-4 ELECTROSTATICS SCALED BY 1
Info: MODIFIED 1-4 VDW PARAMETERS WILL BE USED
Info: DCD FILENAME           min.dcd
Info: DCD FREQUENCY          480
Info: DCD FIRST STEP         480
Info: DCD FILE WILL CONTAIN UNIT CELL DATA
Info: XST FILENAME           min.xst
Info: XST FREQUENCY          480
Info: NO VELOCITY DCD OUTPUT
Info: NO FORCE DCD OUTPUT
Info: OUTPUT FILENAME        min
Info: BINARY OUTPUT FILES WILL BE USED
Info: RESTART FILENAME       min.restart
Info: RESTART FREQUENCY      480
Info: BINARY RESTART FILES WILL BE USED
Info: SWITCHING ACTIVE
Info: SWITCHING ON           10
Info: SWITCHING OFF          12
Info: PAIRLIST DISTANCE      13.5
Info: PAIRLIST SHRINK RATE   0.01
Info: PAIRLIST GROW RATE     0.01
Info: PAIRLIST TRIGGER       0.3
Info: PAIRLISTS PER CYCLE    2
Info: PAIRLISTS ENABLED
Info: MARGIN                 0
Info: HYDROGEN GROUP CUTOFF  2.5
Info: PATCH DIMENSION        16
Info: ENERGY OUTPUT STEPS    480
Info: CROSSTERM ENERGY INCLUDED IN DIHEDRAL
Info: TIMING OUTPUT STEPS    480
Info: PRESSURE OUTPUT STEPS  480
Info: USING VERLET I (r-RESPA) MTS SCHEME.
Info: C1 SPLITTING OF LONG RANGE ELECTROSTATICS
Info: PLACING ATOMS IN PATCHES BY HYDROGEN GROUPS
Info: RIGID BONDS TO HYDROGEN : ALL
Info:         ERROR TOLERANCE : 1e-08
Info:          MAX ITERATIONS : 100
Info: RIGID WATER USING SETTLE ALGORITHM
Info: RANDOM NUMBER SEED     1537811926
Info: USE HYDROGEN BONDS?    NO
Info: COORDINATE PDB         ../../../../../weisi3/wu-clya-pore/clya-cs-13mer-run/add-ions/clya-cs_ions.pdb
Info: STRUCTURE FILE         ../../../../../weisi3/wu-clya-pore/clya-cs-13mer-run/add-ions/clya-cs_ions.psf
Info: PARAMETER file: CHARMM format!
Info: PARAMETERS             ../../charmm36.nbfix/par_all36_prot.prm
Info: PARAMETERS             ../../charmm36.nbfix/par_water_ions_na.prm
Info: PARAMETERS             ../../charmm36.nbfix/par_all36_na.prm
Info: PARAMETERS             ../../charmm36.nbfix/par_all36_lipid.prm
Info: PARAMETERS             ../../charmm36.nbfix/par_all36_dphpc.str
Info: USING ARITHMETIC MEAN TO COMBINE L-J SIGMA PARAMETERS
Info: SUMMARY OF PARAMETERS:
Info: 275 BONDS
Info: 713 ANGLES
Info: 1352 DIHEDRAL
Info: 54 IMPROPER
Info: 6 CROSSTERM
Info: 140 VDW
Info: 24 VDW_PAIRS
Info: 0 NBTHOLE_PAIRS
Info: STRUCTURE SUMMARY:
Info: 883481 ATOMS
Info: 648914 BONDS
Info: 600634 ANGLES
Info: 534870 DIHEDRALS
Info: 12656 IMPROPERS
Info: 3991 CROSSTERMS
Info: 0 EXCLUSIONS
Info: 793195 RIGID BONDS
Info: 1857248 DEGREES OF FREEDOM
Info: 316296 HYDROGEN GROUPS
Info: 4 ATOMS IN LARGEST HYDROGEN GROUP
Info: 316296 MIGRATION GROUPS
Info: 4 ATOMS IN LARGEST MIGRATION GROUP
Info: TOTAL MASS = 5.56225e+06 amu
Info: TOTAL CHARGE = 9.19066e-05 e
Info: MASS DENSITY = 0.763351 g/cm^3
Info: ATOM DENSITY = 0.073015 atoms/A^3
Info: ADDED 1782481 IMPLICIT EXCLUSIONS
Info: NONBONDED TABLE R-SQUARED SPACING: 0.0625
Info: NONBONDED TABLE SIZE: 769 POINTS
Info: Updated CUDA LJ table with 140 x 140 elements.
Info: Updated CUDA force table with 4096 elements.
Info: Found 352 unique exclusion lists needing 1212 bytes
TCL: Minimizing for 9600 steps
ETITLE: TS BOND ANGLE DIHED IMPRP ELECT VDW BOUNDARY MISC KINETIC TOTAL TEMP POTENTIAL TOTAL3 TEMPAVG PRESSURE GPRESSURE VOLUME PRESSAVG GPRESSAVG
ENERGY: 0 12039.2489 148974.8980 76961.2234 1042.9217 -2519377.9283 34543355.7993 0.0000 0.0000 0.0000 32262996.1631 0.0000 32262996.1631 32262996.1631 0.0000 631843.6247 631549.7539 12100000.0000 631843.6247 631549.7539
ENERGY: 270 9007.3328 71697.2119 75527.8501 1149.0940 -3432634.8016 188639.6241 0.0000 0.0000 0.0000 -3086613.6887 0.0000 -3086613.6887 -3086613.6887 0.0000 10715.8921 -2160.7400 12100000.0000 10715.8921 -2160.7400
ENERGY: 539 6691.3870 53056.5688 73640.9083 1012.2321 -3584368.3005 194276.9458 0.0000 0.0000 0.0000 -3255690.2586 0.0000 -3255690.2586 -3255690.2586 0.0000 10528.1668 -2964.2142 12100000.0000 10528.1668 -2964.2142
ENERGY: 809 6216.2540 47961.1936 72326.6968 964.9656 -3655952.9851 204586.0090 0.0000 0.0000 0.0000 -3323897.8661 0.0000 -3323897.8661 -3323897.8661 0.0000 10695.8911 -3105.3313 12100000.0000 10695.8911 -3105.3313
ENERGY: 1078 6104.6771 45650.1752 71483.6592 951.0977 -3700379.1050 213075.0867 0.0000 0.0000 0.0000 -3363114.4092 0.0000 -3363114.4092 -3363114.4092 0.0000 10814.9641 -3183.9209 12100000.0000 10814.9641 -3183.9209
ENERGY: 1348 5928.4254 43816.5567 70674.2925 927.8083 -3741621.5031 222220.7761 0.0000 0.0000 0.0000 -3398053.6441 0.0000 -3398053.6441 -3398053.6441 0.0000 10997.5903 -3183.8977 12100000.0000 10997.5903 -3183.8977
