Info: SIMULATION PARAMETERS:
Info: TIMESTEP               2
Info: NUMBER OF STEPS        0
Info: STEPS PER CYCLE        20
Info: PERIODIC CELL BASIS 1  220 0 0
Info: PERIODIC CELL BASIS 2  0 220 0
Info: PERIODIC CELL BASIS 3  0 0 185
Info: PERIODIC CELL CENTER   0.0712694 0.159331 47.5
Info: WRAPPING WATERS AROUND PERIODIC BOUNDARIES ON OUTPUT.
Info: WRAPPING ALL CLUSTERS AROUND PERIODIC BOUNDARIES ON OUTPUT.
Info: FIRST LDB TIMESTEP     100
Info: LAST LDB TIMESTEP     -1
Info: HOM BACKGROUND SCALING 1
Info: PME BACKGROUND SCALING 1
Info: MIN ATOMS PER PATCH    40
Info: VELOCITY FILE          min_nofix.restart.vel
Info: CENTER OF MASS MOVING INITIALLY? NO
Info: DIELECTRIC             1
Info: EXCLUDE                SCALED ONE-FOUR
Info: 1-4 ELECTROSTATICS SCALED BY 1
Info: MODIFIED 1-4 VDW PARAMETERS WILL BE USED
Info: DCD FILENAME           min2_nofix.dcd
Info: DCD FREQUENCY          1000
Info: DCD FIRST STEP         1000
Info: DCD FILE WILL CONTAIN UNIT CELL DATA
Info: XST FILENAME           min2_nofix.xst
Info: XST FREQUENCY          1000
Info: NO VELOCITY DCD OUTPUT
Info: NO FORCE DCD OUTPUT
Info: OUTPUT FILENAME        min2_nofix
Info: BINARY OUTPUT FILES WILL BE USED
Info: RESTART FILENAME       min2_nofix.restart
Info: RESTART FREQUENCY      1000
Info: BINARY RESTART FILES WILL BE USED
Info: SWITCHING ACTIVE
Info: SWITCHING ON           10
Info: SWITCHING OFF          12
Info: PAIRLIST DISTANCE      13.5
Info: PAIRLIST SHRINK RATE   0.01
Info: PAIRLIST GROW RATE     0.01
Info: PAIRLIST TRIGGER       0.3
Info: PAIRLISTS PER CYCLE    2
Info: PAIRLISTS ENABLED
Info: MARGIN                 30
Info: HYDROGEN GROUP CUTOFF  2.5
Info: PATCH DIMENSION        46
Info: ENERGY OUTPUT STEPS    1000
Info: CROSSTERM ENERGY INCLUDED IN DIHEDRAL
Info: TIMING OUTPUT STEPS    10000
Info: PRESSURE OUTPUT STEPS  1000
Info: HARMONIC CONSTRAINTS ACTIVE
Info: HARMONIC CONS EXP      2
Info: HARMONIC CONS SCALING  0.05
Info: LANGEVIN DYNAMICS ACTIVE
Info: LANGEVIN TEMPERATURE   293
Info: LANGEVIN USING BBK INTEGRATOR
Info: LANGEVIN DAMPING COEFFICIENT IS 1 INVERSE PS
Info: LANGEVIN DYNAMICS APPLIED TO HYDROGENS
Info: LANGEVIN PISTON PRESSURE CONTROL ACTIVE
Info:        TARGET PRESSURE IS 1.01325 BAR
Info:     OSCILLATION PERIOD IS 200 FS
Info:             DECAY TIME IS 50 FS
Info:     PISTON TEMPERATURE IS 293 K
Info:       PRESSURE CONTROL IS GROUP-BASED
Info:    INITIAL STRAIN RATE IS 0 0 0
Info:       CELL FLUCTUATION IS ANISOTROPIC
Info:     CONSTANT AREA PRESSURE CONTROL ACTIVE
Info: PARTICLE MESH EWALD (PME) ACTIVE
Info: PME TOLERANCE               1e-06
Info: PME EWALD COEFFICIENT       0.257952
Info: PME INTERPOLATION ORDER     4
Info: PME GRID DIMENSIONS         224 224 192
Info: PME MAXIMUM GRID SPACING    1
Info: FULL ELECTROSTATIC EVALUATION FREQUENCY      2
Info: USING VERLET I (r-RESPA) MTS SCHEME.
Info: C1 SPLITTING OF LONG RANGE ELECTROSTATICS
Info: PLACING ATOMS IN PATCHES BY HYDROGEN GROUPS
Info: RIGID BONDS TO HYDROGEN : ALL
Info:         ERROR TOLERANCE : 1e-08
Info:          MAX ITERATIONS : 100
Info: RIGID WATER USING SETTLE ALGORITHM
Info: RANDOM NUMBER SEED     1538419741
Info: USE HYDROGEN BONDS?    NO
Info: COORDINATE PDB         clya-13mercs_kcl.pdb
Info: STRUCTURE FILE         clya-13mercs_kcl.psf
Info: PARAMETER file: CHARMM format!
Info: PARAMETERS             ../../charmm36.nbfix/par_all36_prot.prm
Info: PARAMETERS             ../../charmm36.nbfix/par_water_ions_na.prm
Info: PARAMETERS             ../../charmm36.nbfix/par_all36_na.prm
Info: PARAMETERS             ../../charmm36.nbfix/par_all36_lipid.prm
Info: PARAMETERS             ../../charmm36.nbfix/par_all36_dphpc.str
Info: USING ARITHMETIC MEAN TO COMBINE L-J SIGMA PARAMETERS
Info: BINARY COORDINATES     min_nofix.restart.coor
Info: SUMMARY OF PARAMETERS:
Info: 275 BONDS
Info: 713 ANGLES
Info: 1352 DIHEDRAL
Info: 54 IMPROPER
Info: 6 CROSSTERM
Info: 140 VDW
Info: 24 VDW_PAIRS
Info: 0 NBTHOLE_PAIRS
Info: STRUCTURE SUMMARY:
Info: 817895 ATOMS
Info: 620337 BONDS
Info: 533311 ANGLES
Info: 484992 DIHEDRALS
Info: 13211 IMPROPERS
Info: 3991 CROSSTERMS
Info: 0 EXCLUSIONS
Info: 4017 CONSTRAINTS
Info: 712448 RIGID BONDS
Info: 1741237 DEGREES OF FREEDOM
Info: 295462 HYDROGEN GROUPS
Info: 4 ATOMS IN LARGEST HYDROGEN GROUP
Info: 295462 MIGRATION GROUPS
Info: 4 ATOMS IN LARGEST MIGRATION GROUP
Info: TOTAL MASS = 5.1055e+06 amu
Info: TOTAL CHARGE = 0.000106912 e
Info: MASS DENSITY = 0.946848 g/cm^3
Info: ATOM DENSITY = 0.0913441 atoms/A^3
Info: ADDED 1921897 IMPLICIT EXCLUSIONS
Info: NONBONDED TABLE R-SQUARED SPACING: 0.0625
Info: NONBONDED TABLE SIZE: 769 POINTS
Info: REMOVING COM VELOCITY 0 0 0
TCL: Minimizing for 1000 steps
ETITLE: TS BOND ANGLE DIHED IMPRP ELECT VDW BOUNDARY MISC KINETIC TOTAL TEMP POTENTIAL TOTAL3 TEMPAVG PRESSURE GPRESSURE VOLUME PRESSAVG GPRESSAVG
ENERGY: 0 31459.5504 94436.7999 35787.7154 5847.4531 -2864024.8401 241029.6159 55.4327 0.0000 0.0000 -2455408.2727 0.0000 -2455408.2727 -2455408.2727 0.0000 16206.5365 -10989.8492 8954000.0000 16206.5365 -10989.8492
ENERGY: 200 27133.4861 86966.9547 35318.8823 5047.6327 -2907637.5408 224823.4897 59.8852 0.0000 0.0000 -2528287.2101 0.0000 -2528287.2101 -2528287.2101 0.0000 15569.0188 15127.1686 8954000.0000 15569.0188 15127.1686
ENERGY: 400 25739.2737 79850.6998 34764.8758 5167.9966 -2953559.4806 212109.1194 64.9975 0.0000 0.0000 -2595862.5178 0.0000 -2595862.5178 -2595862.5178 0.0000 14992.2492 14536.8024 8954000.0000 14992.2492 14536.8024
ENERGY: 600 25474.7779 74617.6163 34260.2681 4746.8515 -2992008.0351 204261.3438 69.6676 0.0000 0.0000 -2648577.5099 0.0000 -2648577.5099 -2648577.5099 0.0000 14584.5974 14119.8755 8954000.0000 14584.5974 14119.8755
ENERGY: 800 22468.8891 70176.2509 33810.1622 4247.6883 -3029791.3349 196763.1556 74.4948 0.0000 0.0000 -2702250.6940 0.0000 -2702250.6940 -2702250.6940 0.0000 14265.6817 13816.1032 8954000.0000 14265.6817 13816.1032
ENERGY: 1000 28042.2852 66270.6765 33370.1675 4998.6285 -3068921.0943 195178.2745 80.2276 0.0000 0.0000 -2740980.8347 0.0000 -2740980.8347 -2740980.8347 0.0000 13927.1034 13493.4201 8954000.0000 13927.1034 13493.4201
TCL: Running for 0 steps
ETITLE: TS BOND ANGLE DIHED IMPRP ELECT VDW BOUNDARY MISC KINETIC TOTAL TEMP POTENTIAL TOTAL3 TEMPAVG PRESSURE GPRESSURE VOLUME PRESSAVG GPRESSAVG
ENERGY: 1000 28042.2852 66270.6765 33370.1675 4998.6285 -3068921.0939 195178.2745 80.2276 0.0000 506668.9247 -2234311.9095 292.8578 -2740980.8342 -2237437.6301 292.8578 477.0093 656.4551 8954000.0000 477.0093 656.4551
