Info: SIMULATION PARAMETERS:
Info: TIMESTEP               2
Info: NUMBER OF STEPS        0
Info: STEPS PER CYCLE        20
Info: PERIODIC CELL BASIS 1  220 0 0
Info: PERIODIC CELL BASIS 2  0 220 0
Info: PERIODIC CELL BASIS 3  0 0 185
Info: PERIODIC CELL CENTER   0.0712694 0.159331 47.5
Info: WRAPPING WATERS AROUND PERIODIC BOUNDARIES ON OUTPUT.
Info: WRAPPING ALL CLUSTERS AROUND PERIODIC BOUNDARIES ON OUTPUT.
Info: FIRST LDB TIMESTEP     100
Info: LAST LDB TIMESTEP     -1
Info: HOM BACKGROUND SCALING 1
Info: PME BACKGROUND SCALING 1
Info: MIN ATOMS PER PATCH    40
Info: VELOCITY FILE          min2_nofix.restart.vel
Info: CENTER OF MASS MOVING INITIALLY? NO
Info: DIELECTRIC             1
Info: EXCLUDE                SCALED ONE-FOUR
Info: 1-4 ELECTROSTATICS SCALED BY 1
Info: MODIFIED 1-4 VDW PARAMETERS WILL BE USED
Info: DCD FILENAME           min3_nofix.dcd
Info: DCD FREQUENCY          1000
Info: DCD FIRST STEP         1000
Info: DCD FILE WILL CONTAIN UNIT CELL DATA
Info: XST FILENAME           min3_nofix.xst
Info: XST FREQUENCY          1000
Info: NO VELOCITY DCD OUTPUT
Info: NO FORCE DCD OUTPUT
Info: OUTPUT FILENAME        min3_nofix
Info: BINARY OUTPUT FILES WILL BE USED
Info: RESTART FILENAME       min3_nofix.restart
Info: RESTART FREQUENCY      1000
Info: BINARY RESTART FILES WILL BE USED
Info: SWITCHING ACTIVE
Info: SWITCHING ON           10
Info: SWITCHING OFF          12
Info: PAIRLIST DISTANCE      13.5
Info: PAIRLIST SHRINK RATE   0.01
Info: PAIRLIST GROW RATE     0.01
Info: PAIRLIST TRIGGER       0.3
Info: PAIRLISTS PER CYCLE    2
Info: PAIRLISTS ENABLED
Info: MARGIN                 30
Info: HYDROGEN GROUP CUTOFF  2.5
Info: PATCH DIMENSION        46
Info: ENERGY OUTPUT STEPS    1000
Info: CROSSTERM ENERGY INCLUDED IN DIHEDRAL
Info: TIMING OUTPUT STEPS    10000
Info: PRESSURE OUTPUT STEPS  1000
Info: HARMONIC CONSTRAINTS ACTIVE
Info: HARMONIC CONS EXP      2
Info: HARMONIC CONS SCALING  0.05
Info: LANGEVIN DYNAMICS ACTIVE
Info: LANGEVIN TEMPERATURE   293
Info: LANGEVIN USING BBK INTEGRATOR
Info: LANGEVIN DAMPING COEFFICIENT IS 1 INVERSE PS
Info: LANGEVIN DYNAMICS APPLIED TO HYDROGENS
Info: LANGEVIN PISTON PRESSURE CONTROL ACTIVE
Info:        TARGET PRESSURE IS 1.01325 BAR
Info:     OSCILLATION PERIOD IS 200 FS
Info:             DECAY TIME IS 50 FS
Info:     PISTON TEMPERATURE IS 293 K
Info:       PRESSURE CONTROL IS GROUP-BASED
Info:    INITIAL STRAIN RATE IS 0 0 0
Info:       CELL FLUCTUATION IS ANISOTROPIC
Info:     CONSTANT AREA PRESSURE CONTROL ACTIVE
Info: PARTICLE MESH EWALD (PME) ACTIVE
Info: PME TOLERANCE               1e-06
Info: PME EWALD COEFFICIENT       0.257952
Info: PME INTERPOLATION ORDER     4
Info: PME GRID DIMENSIONS         224 224 192
Info: PME MAXIMUM GRID SPACING    1
Info: FULL ELECTROSTATIC EVALUATION FREQUENCY      2
Info: USING VERLET I (r-RESPA) MTS SCHEME.
Info: C1 SPLITTING OF LONG RANGE ELECTROSTATICS
Info: PLACING ATOMS IN PATCHES BY HYDROGEN GROUPS
Info: RIGID BONDS TO HYDROGEN : ALL
Info:         ERROR TOLERANCE : 1e-08
Info:          MAX ITERATIONS : 100
Info: RIGID WATER USING SETTLE ALGORITHM
Info: RANDOM NUMBER SEED     1538422290
Info: USE HYDROGEN BONDS?    NO
Info: COORDINATE PDB         clya-13mercs_kcl.pdb
Info: STRUCTURE FILE         clya-13mercs_kcl.psf
Info: PARAMETER file: CHARMM format!
Info: PARAMETERS             ../../charmm36.nbfix/par_all36_prot.prm
Info: PARAMETERS             ../../charmm36.nbfix/par_water_ions_na.prm
Info: PARAMETERS             ../../charmm36.nbfix/par_all36_na.prm
Info: PARAMETERS             ../../charmm36.nbfix/par_all36_lipid.prm
Info: PARAMETERS             ../../charmm36.nbfix/par_all36_dphpc.str
Info: USING ARITHMETIC MEAN TO COMBINE L-J SIGMA PARAMETERS
Info: BINARY COORDINATES     min2_nofix.restart.coor
Info: SUMMARY OF PARAMETERS:
Info: 275 BONDS
Info: 713 ANGLES
Info: 1352 DIHEDRAL
Info: 54 IMPROPER
Info: 6 CROSSTERM
Info: 140 VDW
Info: 24 VDW_PAIRS
Info: 0 NBTHOLE_PAIRS
Info: STRUCTURE SUMMARY:
Info: 817895 ATOMS
Info: 620337 BONDS
Info: 533311 ANGLES
Info: 484992 DIHEDRALS
Info: 13211 IMPROPERS
Info: 3991 CROSSTERMS
Info: 0 EXCLUSIONS
Info: 4017 CONSTRAINTS
Info: 712448 RIGID BONDS
Info: 1741237 DEGREES OF FREEDOM
Info: 295462 HYDROGEN GROUPS
Info: 4 ATOMS IN LARGEST HYDROGEN GROUP
Info: 295462 MIGRATION GROUPS
Info: 4 ATOMS IN LARGEST MIGRATION GROUP
Info: TOTAL MASS = 5.1055e+06 amu
Info: TOTAL CHARGE = 0.000106912 e
Info: MASS DENSITY = 0.946848 g/cm^3
Info: ATOM DENSITY = 0.0913441 atoms/A^3
Info: ADDED 1921897 IMPLICIT EXCLUSIONS
Info: NONBONDED TABLE R-SQUARED SPACING: 0.0625
Info: NONBONDED TABLE SIZE: 769 POINTS
Info: REMOVING COM VELOCITY 0 0 0
TCL: Minimizing for 3000 steps
ETITLE: TS BOND ANGLE DIHED IMPRP ELECT VDW BOUNDARY MISC KINETIC TOTAL TEMP POTENTIAL TOTAL3 TEMPAVG PRESSURE GPRESSURE VOLUME PRESSAVG GPRESSAVG
ENERGY: 0 28042.2852 66270.6765 33370.1675 4998.6285 -3068921.0936 195178.2745 80.2276 0.0000 0.0000 -2740980.8340 0.0000 -2740980.8340 -2740980.8340 0.0000 13927.1034 -14936.1232 8954000.0000 13927.1034 -14936.1232
ENERGY: 600 20625.3770 60540.2724 32588.9705 3547.7862 -3124424.0992 185947.6524 88.9150 0.0000 0.0000 -2821085.1256 0.0000 -2821085.1256 -2821085.1256 0.0000 13623.0549 13178.5696 8954000.0000 13623.0549 13178.5696
ENERGY: 1200 19381.7582 56472.3981 31919.9685 3039.4965 -3174771.7521 183805.0770 97.9079 0.0000 0.0000 -2880055.1459 0.0000 -2880055.1459 -2880055.1459 0.0000 13403.2792 12955.7173 8954000.0000 13403.2792 12955.7173
ENERGY: 1800 17657.6541 54496.5934 31531.7817 2206.5714 -3203415.7028 183273.1211 103.1568 0.0000 0.0000 -2914146.8242 0.0000 -2914146.8242 -2914146.8242 0.0000 13323.3247 12883.6898 8954000.0000 13323.3247 12883.6898
ENERGY: 2400 17577.5358 53198.9443 31295.3676 2138.0051 -3224236.9246 183878.4109 107.2661 0.0000 0.0000 -2936041.3949 0.0000 -2936041.3949 -2936041.3949 0.0000 13283.6938 12834.4555 8954000.0000 13283.6938 12834.4555
ENERGY: 3000 16833.9853 52894.0204 31162.8881 1746.0457 -3229406.7560 183586.1544 108.2066 0.0000 0.0000 -2943075.4555 0.0000 -2943075.4555 -2943075.4555 0.0000 13268.0618 12831.2635 8954000.0000 13268.0618 12831.2635
TCL: Running for 0 steps
ETITLE: TS BOND ANGLE DIHED IMPRP ELECT VDW BOUNDARY MISC KINETIC TOTAL TEMP POTENTIAL TOTAL3 TEMPAVG PRESSURE GPRESSURE VOLUME PRESSAVG GPRESSAVG
ENERGY: 3000 16833.9853 52894.0204 31162.8881 1746.0457 -3229406.7562 183586.1544 108.2066 0.0000 506679.4449 -2436396.0107 292.8639 -2943075.4556 -2438845.3724 292.8639 -830.1455 -672.2083 8954000.0000 -830.1455 -672.2083
