Info: SIMULATION PARAMETERS:
Info: TIMESTEP               2
Info: NUMBER OF STEPS        0
Info: STEPS PER CYCLE        20
Info: PERIODIC CELL BASIS 1  190 0 0
Info: PERIODIC CELL BASIS 2  0 190 0
Info: PERIODIC CELL BASIS 3  0 0 185
Info: PERIODIC CELL CENTER   0.0712694 0.159331 52.8276
Info: WRAPPING WATERS AROUND PERIODIC BOUNDARIES ON OUTPUT.
Info: WRAPPING ALL CLUSTERS AROUND PERIODIC BOUNDARIES ON OUTPUT.
Info: FIRST LDB TIMESTEP     100
Info: LAST LDB TIMESTEP     -1
Info: HOM BACKGROUND SCALING 1
Info: PME BACKGROUND SCALING 1
Info: MIN ATOMS PER PATCH    40
Info: INITIAL TEMPERATURE    293
Info: CENTER OF MASS MOVING INITIALLY? NO
Info: DIELECTRIC             1
Info: EXCLUDE                SCALED ONE-FOUR
Info: 1-4 ELECTROSTATICS SCALED BY 1
Info: MODIFIED 1-4 VDW PARAMETERS WILL BE USED
Info: DCD FILENAME           min_nofix.dcd
Info: DCD FREQUENCY          1000
Info: DCD FIRST STEP         1000
Info: DCD FILE WILL CONTAIN UNIT CELL DATA
Info: XST FILENAME           min_nofix.xst
Info: XST FREQUENCY          1000
Info: NO VELOCITY DCD OUTPUT
Info: NO FORCE DCD OUTPUT
Info: OUTPUT FILENAME        min_nofix
Info: BINARY OUTPUT FILES WILL BE USED
Info: RESTART FILENAME       min_nofix.restart
Info: RESTART FREQUENCY      1000
Info: BINARY RESTART FILES WILL BE USED
Info: SWITCHING ACTIVE
Info: SWITCHING ON           10
Info: SWITCHING OFF          12
Info: PAIRLIST DISTANCE      13.5
Info: PAIRLIST SHRINK RATE   0.01
Info: PAIRLIST GROW RATE     0.01
Info: PAIRLIST TRIGGER       0.3
Info: PAIRLISTS PER CYCLE    2
Info: PAIRLISTS ENABLED
Info: MARGIN                 30
Info: HYDROGEN GROUP CUTOFF  2.5
Info: PATCH DIMENSION        46
Info: ENERGY OUTPUT STEPS    1000
Info: CROSSTERM ENERGY INCLUDED IN DIHEDRAL
Info: TIMING OUTPUT STEPS    10000
Info: PRESSURE OUTPUT STEPS  1000
Info: LANGEVIN DYNAMICS ACTIVE
Info: LANGEVIN TEMPERATURE   293
Info: LANGEVIN USING BBK INTEGRATOR
Info: LANGEVIN DAMPING COEFFICIENT IS 1 INVERSE PS
Info: LANGEVIN DYNAMICS APPLIED TO HYDROGENS
Info: LANGEVIN PISTON PRESSURE CONTROL ACTIVE
Info:        TARGET PRESSURE IS 1.01325 BAR
Info:     OSCILLATION PERIOD IS 200 FS
Info:             DECAY TIME IS 50 FS
Info:     PISTON TEMPERATURE IS 293 K
Info:       PRESSURE CONTROL IS GROUP-BASED
Info:    INITIAL STRAIN RATE IS 0 0 0
Info:       CELL FLUCTUATION IS ANISOTROPIC
Info:     CONSTANT AREA PRESSURE CONTROL ACTIVE
Info: PARTICLE MESH EWALD (PME) ACTIVE
Info: PME TOLERANCE               1e-06
Info: PME EWALD COEFFICIENT       0.257952
Info: PME INTERPOLATION ORDER     4
Info: PME GRID DIMENSIONS         192 192 192
Info: PME MAXIMUM GRID SPACING    1
Info: FULL ELECTROSTATIC EVALUATION FREQUENCY      2
Info: USING VERLET I (r-RESPA) MTS SCHEME.
Info: C1 SPLITTING OF LONG RANGE ELECTROSTATICS
Info: PLACING ATOMS IN PATCHES BY HYDROGEN GROUPS
Info: RIGID BONDS TO HYDROGEN : ALL
Info:         ERROR TOLERANCE : 1e-08
Info:          MAX ITERATIONS : 100
Info: RIGID WATER USING SETTLE ALGORITHM
Info: RANDOM NUMBER SEED     1538169427
Info: USE HYDROGEN BONDS?    NO
Info: COORDINATE PDB         wat.pdb
Info: STRUCTURE FILE         wat.psf
Info: PARAMETER file: CHARMM format!
Info: PARAMETERS             ../../../charmm36.nbfix/par_water_ions_na.prm
Info: PARAMETERS             ../../../charmm36.nbfix/par_all36_na.prm
Info: PARAMETERS             ../../../charmm36.nbfix/par_all36_lipid.prm
Info: PARAMETERS             ../../../charmm36.nbfix/par_all36_prot.prm
Info: USING ARITHMETIC MEAN TO COMBINE L-J SIGMA PARAMETERS
Info: SUMMARY OF PARAMETERS:
Info: 275 BONDS
Info: 712 ANGLES
Info: 1352 DIHEDRAL
Info: 54 IMPROPER
Info: 6 CROSSTERM
Info: 140 VDW
Info: 24 VDW_PAIRS
Info: 0 NBTHOLE_PAIRS
Info: STRUCTURE SUMMARY:
Info: 363210 ATOMS
Info: 242140 BONDS
Info: 121070 ANGLES
Info: 0 DIHEDRALS
Info: 0 IMPROPERS
Info: 0 CROSSTERMS
Info: 0 EXCLUSIONS
Info: 363210 RIGID BONDS
Info: 726420 DEGREES OF FREEDOM
Info: 121070 HYDROGEN GROUPS
Info: 3 ATOMS IN LARGEST HYDROGEN GROUP
Info: 121070 MIGRATION GROUPS
Info: 3 ATOMS IN LARGEST MIGRATION GROUP
Info: TOTAL MASS = 2.18112e+06 amu
Info: TOTAL CHARGE = 0 e
Info: MASS DENSITY = 0.542326 g/cm^3
Info: ATOM DENSITY = 0.054385 atoms/A^3
Info: ADDED 363210 IMPLICIT EXCLUSIONS
Info: NONBONDED TABLE R-SQUARED SPACING: 0.0625
Info: NONBONDED TABLE SIZE: 769 POINTS
Info: REMOVING COM VELOCITY 0.00949171 0.0097418 -0.00764594
Info: Updated CUDA force table with 4096 elements.
Info: Updated CUDA LJ table with 140 x 140 elements.
Info: Found 3 unique exclusion lists needing 4 bytes
TCL: Minimizing for 1000 steps
ETITLE: TS BOND ANGLE DIHED IMPRP ELECT VDW BOUNDARY MISC KINETIC TOTAL TEMP POTENTIAL TOTAL3 TEMPAVG PRESSURE GPRESSURE VOLUME PRESSAVG GPRESSAVG
ENERGY: 0 0.0000 0.0000 0.0000 0.0000 -6909177.8459 0.0000 0.0000 0.0000 0.0000 -6909177.8458 0.0000 -6909177.8458 -6909177.8458 0.0000 -153.7897 -14785.8981 6678500.0000 -153.7897 -14785.8981
ENERGY: 200 0.0000 0.0000 0.0000 0.0000 -7641883.8589 0.0000 0.0000 0.0000 0.0000 -7641883.8589 0.0000 -7641883.8589 -7641883.8589 0.0000 -132.2910 -21853.6003 6678500.0000 -132.2910 -21853.6003
ENERGY: 400 0.0000 0.0000 0.0000 0.0000 -7658488.1344 0.0000 0.0000 0.0000 0.0000 -7658488.1343 0.0000 -7658488.1343 -7658488.1343 0.0000 -141.1215 -25456.7867 6678500.0000 -141.1215 -25456.7867
ENERGY: 600 0.0000 0.0000 0.0000 0.0000 -7660636.0477 0.0000 0.0000 0.0000 0.0000 -7660636.0476 0.0000 -7660636.0476 -7660636.0476 0.0000 -142.3274 -26316.6118 6678500.0000 -142.3274 -26316.6118
ENERGY: 800 0.0000 0.0000 0.0000 0.0000 -7660931.3021 0.0000 0.0000 0.0000 0.0000 -7660931.3020 0.0000 -7660931.3020 -7660931.3020 0.0000 -142.4585 -26436.3670 6678500.0000 -142.4585 -26436.3670
ENERGY: 1000 0.0000 0.0000 0.0000 0.0000 -7661018.2298 0.0000 0.0000 0.0000 0.0000 -7661018.2297 0.0000 -7661018.2297 -7661018.2297 0.0000 -142.5477 -26516.4572 6678500.0000 -142.5477 -26516.4572
TCL: Running for 0 steps
ETITLE: TS BOND ANGLE DIHED IMPRP ELECT VDW BOUNDARY MISC KINETIC TOTAL TEMP POTENTIAL TOTAL3 TEMPAVG PRESSURE GPRESSURE VOLUME PRESSAVG GPRESSAVG
ENERGY: 1000 0.0000 0.0000 0.0000 0.0000 -7661018.2300 0.0000 0.0000 0.0000 211907.1661 -7449111.0638 293.5947 -7661018.2299 -7450060.4349 293.5947 -7781.5241 -8214.5492 6678500.0000 -7781.5241 -8214.5492
