Info: SIMULATION PARAMETERS:
Info: TIMESTEP               2
Info: NUMBER OF STEPS        5000
Info: STEPS PER CYCLE        20
Info: PERIODIC CELL BASIS 1  65 0 0
Info: PERIODIC CELL BASIS 2  0 72 0
Info: PERIODIC CELL BASIS 3  0 0 188
Info: PERIODIC CELL CENTER   5.2 0 93.3
Info: WRAPPING ALL CLUSTERS AROUND PERIODIC BOUNDARIES ON OUTPUT.
Info: WRAPPING TO IMAGE NEAREST TO PERIODIC CELL CENTER.
Info: FIRST LDB TIMESTEP     100
Info: LAST LDB TIMESTEP     -1
Info: HOM BACKGROUND SCALING 1
Info: MIN ATOMS PER PATCH    40
Info: INITIAL TEMPERATURE    0
Info: CENTER OF MASS MOVING INITIALLY? YES
Info: DIELECTRIC             1
Info: EXCLUDE                SCALED ONE-FOUR
Info: 1-4 ELECTROSTATICS SCALED BY 1
Info: MODIFIED 1-4 VDW PARAMETERS WILL BE USED
Info: DCD FILENAME           2srcmin.dcd
Info: DCD FREQUENCY          500
Info: DCD FIRST STEP         500
Info: DCD FILE WILL CONTAIN UNIT CELL DATA
Info: XST FILENAME           2srcmin.xst
Info: XST FREQUENCY          500
Info: NO VELOCITY DCD OUTPUT
Info: NO FORCE DCD OUTPUT
Info: OUTPUT FILENAME        2srcmin
Info: BINARY OUTPUT FILES WILL BE USED
Info: RESTART FILENAME       2srcmin.restart
Info: RESTART FREQUENCY      500
Info: BINARY RESTART FILES WILL BE USED
Info: SWITCHING ACTIVE
Info: SWITCHING ON           10
Info: SWITCHING OFF          12
Info: PAIRLIST DISTANCE      14
Info: PAIRLIST SHRINK RATE   0.01
Info: PAIRLIST GROW RATE     0.01
Info: PAIRLIST TRIGGER       0.3
Info: PAIRLISTS PER CYCLE    2
Info: PAIRLISTS ENABLED
Info: MARGIN                 0
Info: HYDROGEN GROUP CUTOFF  2.5
Info: PATCH DIMENSION        16.5
Info: ENERGY OUTPUT STEPS    500
Info: CROSSTERM ENERGY INCLUDED IN DIHEDRAL
Info: TIMING OUTPUT STEPS    500
Info: CONJUGATE GRADIENT MINIMIZATION ACTIVE
Info: LINE MINIMIZATION GOAL = 0.001
Info: BABY STEP SIZE = 0.01
Info: TINY STEP SIZE = 1e-06
Info: USING VERLET I (r-RESPA) MTS SCHEME.
Info: C1 SPLITTING OF LONG RANGE ELECTROSTATICS
Info: PLACING ATOMS IN PATCHES BY HYDROGEN GROUPS
Info: NONBONDED FORCES EVALUATED EVERY 2 STEPS
Info: RANDOM NUMBER SEED     1538692283
Info: USE HYDROGEN BONDS?    NO
Info: COORDINATE PDB         2srcprotein_wb_kcl.pdb
Info: STRUCTURE FILE         2srcprotein_wb_kcl.psf
Info: PARAMETER file: CHARMM format!
Info: PARAMETERS             ../../charmm36.nbfix/par_all36_prot.prm
Info: PARAMETERS             ../../charmm36.nbfix/par_water_ions_na.prm
Info: PARAMETERS             ../../charmm36.nbfix/par_all36_na.prm
Info: PARAMETERS             ../../charmm36.nbfix/par_all36_lipid.prm
Info: PARAMETERS             ../../charmm36.nbfix/par_all36_dphpc.str
Info: PARAMETERS             ../../toppar/stream/prot/toppar_all36_prot_na_combined.str
Info: USING ARITHMETIC MEAN TO COMBINE L-J SIGMA PARAMETERS
Info: SKIPPING rtf SECTION IN STREAM FILE
Info: SUMMARY OF PARAMETERS:
Info: 287 BONDS
Info: 756 ANGLES
Info: 1468 DIHEDRAL
Info: 56 IMPROPER
Info: 6 CROSSTERM
Info: 142 VDW
Info: 24 VDW_PAIRS
Info: 0 NBTHOLE_PAIRS
Info: STRUCTURE SUMMARY:
Info: 35551 ATOMS
Info: 25951 BONDS
Info: 22451 ANGLES
Info: 19257 DIHEDRALS
Info: 1219 IMPROPERS
Info: 448 CROSSTERMS
Info: 0 EXCLUSIONS
Info: 106653 DEGREES OF FREEDOM
Info: 13305 HYDROGEN GROUPS
Info: 4 ATOMS IN LARGEST HYDROGEN GROUP
Info: 13305 MIGRATION GROUPS
Info: 4 ATOMS IN LARGEST MIGRATION GROUP
Info: TOTAL MASS = 232508 amu
Info: TOTAL CHARGE = 5.39608e-06 e
Info: MASS DENSITY = 0.438827 g/cm^3
Info: ATOM DENSITY = 0.0404062 atoms/A^3
Info: ADDED 67322 IMPLICIT EXCLUSIONS
Info: NONBONDED TABLE R-SQUARED SPACING: 0.0625
Info: NONBONDED TABLE SIZE: 769 POINTS
ETITLE: TS BOND ANGLE DIHED IMPRP ELECT VDW BOUNDARY MISC KINETIC TOTAL TEMP POTENTIAL TOTAL3 TEMPAVG PRESSURE GPRESSURE VOLUME PRESSAVG GPRESSAVG
ENERGY: 0 9870.7906 3228.8279 4306.3540 2.6574 -99389.6120 450367415.2178 0.0000 0.0000 0.0000 450285434.2357 0.0000 450285434.2357 450285434.2357 0.0000 142301784.8495 153610025.5184 879840.0000 142301784.8495 153610025.5184
ENERGY: 808 4872.3297 4408.1332 3965.6094 58.5807 -182382.3138 14601.2712 0.0000 0.0000 0.0000 -154476.3897 0.0000 -154476.3897 -154476.3897 0.0000 -2374.6839 -11836.0710 879840.0000 -2374.6839 -11836.0710
ENERGY: 1616 5075.3588 4685.5718 3903.4169 53.9011 -190796.6545 17105.1250 0.0000 0.0000 0.0000 -159973.2810 0.0000 -159973.2810 -159973.2810 0.0000 -1857.8900 -11807.8935 879840.0000 -1857.8900 -11807.8935
ENERGY: 2423 5195.1050 4682.6790 3906.0551 52.5252 -193582.4610 17946.7726 0.0000 0.0000 0.0000 -161799.3241 0.0000 -161799.3241 -161799.3241 0.0000 -1690.6562 -11774.2360 879840.0000 -1690.6562 -11774.2360
ENERGY: 3231 5238.7199 4736.3932 3914.7399 52.6594 -195013.6510 18375.6760 0.0000 0.0000 0.0000 -162695.4627 0.0000 -162695.4627 -162695.4627 0.0000 -1543.7848 -11713.5186 879840.0000 -1543.7848 -11713.5186
ENERGY: 4039 5264.1097 4754.1860 3908.4519 53.1633 -195918.2075 18634.5811 0.0000 0.0000 0.0000 -163303.7155 0.0000 -163303.7155 -163303.7155 0.0000 -1466.8161 -11708.2006 879840.0000 -1466.8161 -11708.2006
